
  Ketcher 06161712252D 1   1.00000     0.00000     0

 14 13  0     0  0            999 V2000
   -3.1071    0.9642    0.0000 S   0  0  0  0  0  0  0  0  0  0  0  0
   -2.2410    1.4643    0.0000 C   0  0  0  0  0  0  0  0  0  0  0  0
   -2.2410    2.4642    0.0000 O   0  0  0  0  0  0  0  0  0  0  0  0
   -1.3752    0.9642    0.0000 C   0  0  0  0  0  0  0  0  0  0  0  0
   -0.5091    1.4643    0.0000 C   0  0  0  0  0  0  0  0  0  0  0  0
    0.3570    0.9642    0.0000 C   0  0  0  0  0  0  0  0  0  0  0  0
   -0.5091    2.4642    0.0000 O   0  0  0  0  0  0  0  0  0  0  0  0
    1.2230    1.4643    0.0000 C   0  0  0  0  0  0  0  0  0  0  0  0
    2.0890    0.9642    0.0000 C   0  0  0  0  0  0  0  0  0  0  0  0
    2.9549    1.4643    0.0000 C   0  0  0  0  0  0  0  0  0  0  0  0
    3.8210    0.9642    0.0000 C   0  0  0  0  0  0  0  0  0  0  0  0
    4.6870    1.4641    0.0000 C   0  0  0  0  0  0  0  0  0  0  0  0
    5.5529    0.9641    0.0000 C   0  0  0  0  0  0  0  0  0  0  0  0
   -3.9731    1.4641    0.0000 C   0  0  0  0  0  0  0  0  0  0  0  0
  1  2  1  0     0  0
  2  3  2  0     0  0
  2  4  1  0     0  0
  4  5  1  0     0  0
  5  6  1  0     0  0
  5  7  1  6     0  0
  6  8  1  0     0  0
  8  9  1  0     0  0
  9 10  1  0     0  0
 10 11  1  0     0  0
 11 12  1  0     0  0
 12 13  1  0     0  0
  1 14  1  0     0  0
A   14
G
M  END
