
  Marvin  11291216232D          

 14 14  0  0  1  0            999 V2000
    6.9201   -7.2901    0.0000 P   0  0  0  0  0  0  0  0  0  0  0  0
    6.0901   -7.2901    0.0000 O   0  0  0  0  0  0  0  0  0  0  0  0
    7.7501   -7.2901    0.0000 O   0  0  0  0  0  0  0  0  0  0  0  0
    6.9201   -8.1201    0.0000 O   0  0  0  0  0  0  0  0  0  0  0  0
    6.9201   -6.4601    0.0000 O   0  0  0  0  0  0  0  0  0  0  0  0
    9.3736   -7.8671    0.0000 O   0  0  0  0  0  0  0  0  0  0  0  0
    8.7063   -8.3520    0.0000 C   0  0  1  0  0  0  0  0  0  0  0  0
    8.9612   -9.1366    0.0000 C   0  0  2  0  0  0  0  0  0  0  0  0
    9.7862   -9.1366    0.0000 C   0  0  0  0  0  0  0  0  0  0  0  0
   10.0411   -8.3520    0.0000 C   0  0  2  0  0  0  0  0  0  0  0  0
   10.8258   -8.0971    0.0000 R   0  0  0  0  0  0  0  0  0  0  0  0
    8.3778   -9.7200    0.0000 O   0  0  0  0  0  0  0  0  0  0  0  0
    8.3778  -11.6127    0.0000 H   0  0  0  0  0  0  0  0  0  0  0  0
    7.9216   -8.0971    0.0000 C   0  0  0  0  0  0  0  0  0  0  0  0
  2  1  1  0  0  0  0
  3  1  1  0  0  0  0
  4  1  1  0  0  0  0
  5  1  2  0  0  0  0
  6  7  1  0  0  0  0
  7  8  1  0  0  0  0
  8  9  1  0  0  0  0
  9 10  1  0  0  0  0
  6 10  1  0  0  0  0
 10 11  1  1  0  0  0
  8 12  1  6  0  0  0
 12 13  1  0  0  0  0
  7 14  1  1  0  0  0
 14  3  1  0  0  0  0
M  STY  1   1 SRU
M  SCN  1   1 HT 
M  SAL   1 12   1   3   4   5   6   7   8   9  10  11  12  14
M  SDI   1  4    8.7903  -10.4993    7.9653  -10.4993
M  SDI   1  4    6.5783   -7.7026    6.5783   -6.8776
M  SBL   1  2   1  12
M  SMT   1 n
M  END
