
  Mrv0541 02021513492D          

 14 14  0  0  0  0            999 V2000
   -1.5321    1.8214    0.0000 O   0  0  0  0  0  0  0  0  0  0  0  0
   -2.1996    1.3365    0.0000 C   0  0  1  0  0  0  0  0  0  0  0  0
   -1.9446    0.5519    0.0000 C   0  0  2  0  0  0  0  0  0  0  0  0
   -1.1196    0.5519    0.0000 C   0  0  0  0  0  0  0  0  0  0  0  0
   -0.8647    1.3365    0.0000 C   0  0  2  0  0  0  0  0  0  0  0  0
   -0.0801    1.5914    0.0000 R   0  0  0  0  0  0  0  0  0  0  0  0
   -2.9842    1.5914    0.0000 C   0  0  0  0  0  0  0  0  0  0  0  0
   -3.5973    1.0394    0.0000 O   0  0  0  0  0  0  0  0  0  0  0  0
   -4.7355    1.5300    0.0000 H   0  0  0  0  0  0  0  0  0  0  0  0
   -2.4296   -0.1155    0.0000 O   0  0  0  0  0  0  0  0  0  0  0  0
   -2.4479   -0.8692    0.0000 P   0  0  0  0  0  0  0  0  0  0  0  0
   -3.3259   -0.8927    0.0000 O   0  0  0  0  0  0  0  0  0  0  0  0
   -0.2814   -1.5204    0.0000 O   0  5  0  0  0  0  0  0  0  0  0  0
   -2.4774   -1.6131    0.0000 O   0  5  0  0  0  0  0  0  0  0  0  0
  1  2  1  0  0  0  0
  1  5  1  0  0  0  0
  2  3  1  0  0  0  0
  3  4  1  0  0  0  0
  4  5  1  0  0  0  0
  2  7  1  1  0  0  0
  7  8  1  0  0  0  0
  8  9  1  0  0  0  0
  3 10  1  6  0  0  0
 10 11  1  0  0  0  0
 11 12  2  0  0  0  0
 11 13  1  0  0  0  0
 11 14  1  0  0  0  0
  5  6  1  1  0  0  0
M  CHG  2  13  -1  14  -1
M  STY  1   1 SRU
M  SCN  1   1 HT 
M  SAL   1 12   8   7   2   1   6   5   4   3  10  12  14  11
M  SDI   1  4   -0.6171   -0.9326   -0.9174   -1.8759
M  SDI   1  4   -4.5537    0.9381   -4.1363    1.8359
M  SBL   1  2   8  12
M  SMT   1 n
M  END
