ChEBI
  Mrv0541 03121415202D          

 41 43  0  0  1  0            999 V2000
    6.9228   -3.1770    0.0000 C   0  0  1  0  0  0  0  0  0  0  0  0
    7.5906   -2.6926    0.0000 O   0  0  0  0  0  0  0  0  0  0  0  0
    7.1771   -3.9618    0.0000 C   0  0  2  0  0  0  0  0  0  0  0  0
    8.2577   -3.1781    0.0000 C   0  0  2  0  0  0  0  0  0  0  0  0
    8.0021   -3.9625    0.0000 C   0  0  0  0  0  0  0  0  0  0  0  0
    9.0425   -2.9238    0.0000 R   0  0  0  0  0  0  0  0  0  0  0  0
    6.6916   -4.6288    0.0000 O   0  0  0  0  0  0  0  0  0  0  0  0
    6.1384   -2.9214    0.0000 C   0  0  0  0  0  0  0  0  0  0  0  0
    5.3272   -2.9308    0.0000 O   0  0  0  0  0  0  0  0  0  0  0  0
    4.4707   -2.9308    0.0000 P   0  0  0  0  0  0  0  0  0  0  0  0
    4.4707   -2.1215    0.0000 O   0  0  0  0  0  0  0  0  0  0  0  0
    4.4707   -3.5672    0.0000 O   0  0  0  0  0  0  0  0  0  0  0  0
    3.6851   -2.9308    0.0000 O   0  0  0  0  0  0  0  0  0  0  0  0
    9.1436   -5.6843    0.0000 C   0  0  1  0  0  0  0  0  0  0  0  0
    9.8115   -5.2000    0.0000 O   0  0  0  0  0  0  0  0  0  0  0  0
    9.3979   -6.4692    0.0000 C   0  0  2  0  0  0  0  0  0  0  0  0
   10.4785   -5.6854    0.0000 C   0  0  2  0  0  0  0  0  0  0  0  0
   10.2229   -6.4699    0.0000 C   0  0  0  0  0  0  0  0  0  0  0  0
   11.2633   -5.4312    0.0000 R   0  0  0  0  0  0  0  0  0  0  0  0
    8.9124   -7.1362    0.0000 O   0  0  0  0  0  0  0  0  0  0  0  0
    8.3592   -5.4287    0.0000 C   0  0  0  0  0  0  0  0  0  0  0  0
    7.5480   -5.4381    0.0000 O   0  0  0  0  0  0  0  0  0  0  0  0
    6.6916   -5.4381    0.0000 P   0  0  0  0  0  0  0  0  0  0  0  0
    6.6916   -6.0745    0.0000 O   0  0  0  0  0  0  0  0  0  0  0  0
    5.9059   -5.4381    0.0000 O   0  0  0  0  0  0  0  0  0  0  0  0
   11.3644   -8.1917    0.0000 C   0  0  1  0  0  0  0  0  0  0  0  0
   12.0323   -7.7073    0.0000 O   0  0  0  0  0  0  0  0  0  0  0  0
   11.6187   -8.9765    0.0000 C   0  0  2  0  0  0  0  0  0  0  0  0
   12.6993   -8.1928    0.0000 C   0  0  2  0  0  0  0  0  0  0  0  0
   12.4437   -8.9773    0.0000 C   0  0  0  0  0  0  0  0  0  0  0  0
   13.4842   -7.9385    0.0000 R   0  0  0  0  0  0  0  0  0  0  0  0
   11.1332   -9.6436    0.0000 O   0  0  0  0  0  0  0  0  0  0  0  0
   10.5800   -7.9361    0.0000 C   0  0  0  0  0  0  0  0  0  0  0  0
    9.7689   -7.9455    0.0000 O   0  0  0  0  0  0  0  0  0  0  0  0
    8.9124   -7.9455    0.0000 P   0  0  0  0  0  0  0  0  0  0  0  0
    8.9124   -8.5820    0.0000 O   0  0  0  0  0  0  0  0  0  0  0  0
    8.1267   -7.9455    0.0000 O   0  0  0  0  0  0  0  0  0  0  0  0
   11.9897  -10.4529    0.0000 O   0  0  0  0  0  0  0  0  0  0  0  0
   11.1332  -10.4529    0.0000 P   0  0  0  0  0  0  0  0  0  0  0  0
   11.1332  -11.0893    0.0000 O   0  0  0  0  0  0  0  0  0  0  0  0
   10.3475  -10.4529    0.0000 O   0  0  0  0  0  0  0  0  0  0  0  0
  1  2  1  0  0  0  0
  1  3  1  0  0  0  0
  2  4  1  0  0  0  0
  3  5  1  0  0  0  0
  4  5  1  0  0  0  0
  4  6  1  1  0  0  0
  3  7  1  6  0  0  0
  1  8  1  1  0  0  0
  9  8  1  0  0  0  0
 10  9  1  0  0  0  0
 11 10  1  0  0  0  0
 12 10  1  0  0  0  0
 13 10  2  0  0  0  0
 14 15  1  0  0  0  0
 14 16  1  0  0  0  0
 15 17  1  0  0  0  0
 16 18  1  0  0  0  0
 17 18  1  0  0  0  0
 17 19  1  1  0  0  0
 16 20  1  6  0  0  0
 14 21  1  1  0  0  0
 22 21  1  0  0  0  0
 23 22  1  0  0  0  0
  7 23  1  0  0  0  0
 24 23  1  0  0  0  0
 25 23  2  0  0  0  0
 26 27  1  0  0  0  0
 26 28  1  0  0  0  0
 27 29  1  0  0  0  0
 28 30  1  0  0  0  0
 29 30  1  0  0  0  0
 29 31  1  1  0  0  0
 28 32  1  6  0  0  0
 26 33  1  1  0  0  0
 34 33  1  0  0  0  0
 35 34  1  0  0  0  0
 20 35  1  0  0  0  0
 36 35  1  0  0  0  0
 37 35  2  0  0  0  0
 39 38  1  0  0  0  0
 32 39  1  0  0  0  0
 40 39  1  0  0  0  0
 41 39  2  0  0  0  0
M  STY  1   1 SRU
M  SCN  1   1 HT 
M  SAL   1 12  14  15  16  17  18  19  20  21  22  35  36  37
M  SDI   1  4    7.1187   -5.8301    7.1187   -5.0443
M  SDI   1  4    9.3423   -7.5508    9.3423   -8.3365
M  SBL   1  2  23  36
M  SMT   1 n
M  END
